&HEAD CHID='fb350grid100mm', TITLE='Doglas fir 2.6m and 10MC' / dgl_10MC_2.6m_8.0mx8.0mx10.0m Modified-FDS 6.6.0 number of fire brands 5X70 vertical velocity of firebrands vertically 70cm/s and horizontally 210cm/s firebrands ejecting from cone with 0.85m diameter

/domain is -4m to 4m in x direction, -4m to 4m in Y direction and 0-10m in Z direction
&MESH IJK=80,20,100, XB=-4.0,4.0,2.0,4.0,0.0,10.0/ 		Mesh 1, 10cm cell
&MESH IJK=80,20,100, XB=-4.0,4.0,-4.0,-2.0,0.0,10.0/	Mesh 2, 10cm cell
&MESH IJK=20,40,100, XB=-4.0,-2.0,-2.0,2.0,0.0,10.0 / 	Mesh 3,	10cm cell
&MESH IJK=20,40,100, XB=2.0,4.0,-2.0,2.0,0.0,10.0/ 		Mesh 4,	10cm cell
&MESH IJK=16,40,100, XB=-2.0,-0.4,-2.0,2.0,0.0,10.0/ 	Mesh 5,	10cm cell
&MESH IJK=16,40,100, XB=0.4,2.0,-2.0,2.0,0.0,10.0/ 		Mesh 6,	10cm cell
&MESH IJK=8,40,100, XB=-0.4,0.4,-2.0,2.0,0.0,10.0/   	Mesh 7,	10cm cell

&PRES VELOCITY_TOLERANCE=0.01, MAX_PRESSURE_ITERATIONS =320 /To account for loss for flow to move across different meshes. 

&TIME T_BEGIN=0.,T_END=45., DT=0.1 / 

&REAC FUEL='CELLULOSE', C=3.4, H=6.2, O=2.5, SOOT_YIELD=0.02, HEAT_OF_COMBUSTION=17700. /The Effect of Sample Size on the Heat Release Rate of Charring Materials, Ritchie, et al., 5th IAFSS 1997

&MISC COMBUSTION_MODEL_SELECT='COMBUSTION_TWO', SIX=.FALSE.,/ RESTART=.TRUE. / Combustion model of FDS 6.6.0 modified

&VENT MB='XMIN', SURF_ID='OPEN' / 
&VENT MB='XMAX', SURF_ID='OPEN' /
&VENT MB='YMIN', SURF_ID='OPEN' /
&VENT MB='YMAX', SURF_ID='OPEN' /
&VENT MB='ZMAX', SURF_ID='OPEN' /

&SPEC ID='WATER VAPOR' /

/needle(0-6mm)diameter:65%;, average diameter = 3mm, mass and size distribution firebrand generation Manzello et al 2008 Fire and Materials
/twig(0-6mm)diameter:17.5%, average diameter  = 3mm
/twig(6-10mm)diameter:17.5%, average diameter = 8mm
/length of vegetation particles:0.1m : Douglas fir validation NIST 

/Dimensions of vegetation needle, twig1 and twig2; moisture content 10%
&SURF ID                        = 'needle'
      MATL_ID(1,1:2)            = 'foliage','moisture'
      MATL_MASS_FRACTION(1,1:2) = 0.9,0.1
      THICKNESS                 = 0.0015
      LENGTH                    = 0.1
      GEOMETRY                  = 'CYLINDRICAL' /

&SURF ID                        = 'twig_1'
      MATL_ID(1,1:2)            = 'small_twig','moisture'
      MATL_MASS_FRACTION(1,1:2) = 0.9,0.1
      THICKNESS                 = 0.0015
      LENGTH                    = 0.1
      GEOMETRY                  = 'CYLINDRICAL' /

&SURF ID                        = 'twig_2'
      MATL_ID(1,1:2)            = 'large_twig','moisture'
      MATL_MASS_FRACTION(1,1:2) = 0.9,0.1
      THICKNESS                 = 0.004
      LENGTH                    = 0.1
      GEOMETRY                  = 'CYLINDRICAL' /	  
	  
	  

/There are 30 firebrand classes according to mass(g). Defining radius and length of each class. Assume cylindrical shape.
	  
&SURF ID= 'firebrand_1', MATL_ID= 'ember_1', THICKNESS= 0.00066, LENGTH= 0.023, GEOMETRY= 'CYLINDRICAL' /	  
&SURF ID= 'firebrand_2', MATL_ID= 'ember_2', THICKNESS= 0.00094, LENGTH= 0.0201, GEOMETRY= 'CYLINDRICAL' /	  
&SURF ID= 'firebrand_3', MATL_ID= 'ember_3', THICKNESS= 0.00096, LENGTH= 0.0282, GEOMETRY= 'CYLINDRICAL' /	  
&SURF ID= 'firebrand_4', MATL_ID= 'ember_4', THICKNESS= 0.00110, LENGTH= 0.0303, GEOMETRY= 'CYLINDRICAL' /
&SURF ID= 'firebrand_5', MATL_ID= 'ember_5', THICKNESS= 0.00129, LENGTH= 0.0342, GEOMETRY= 'CYLINDRICAL' /


&SURF ID= 'firebrand_6', MATL_ID= 'ember_6', THICKNESS= 0.00134, LENGTH= 0.0403, GEOMETRY= 'CYLINDRICAL' /
&SURF ID= 'firebrand_7', MATL_ID= 'ember_7', THICKNESS= 0.00159, LENGTH= 0.0376, GEOMETRY= 'CYLINDRICAL' /
&SURF ID= 'firebrand_8', MATL_ID= 'ember_8', THICKNESS= 0.00144, LENGTH= 0.0472, GEOMETRY= 'CYLINDRICAL' /
&SURF ID= 'firebrand_9', MATL_ID= 'ember_9', THICKNESS= 0.00160, LENGTH= 0.0349, GEOMETRY= 'CYLINDRICAL' /
&SURF ID= 'firebrand_10', MATL_ID= 'ember_10', THICKNESS= 0.00188, LENGTH= 0.0410, GEOMETRY= 'CYLINDRICAL' /


&SURF ID= 'firebrand_11', MATL_ID= 'ember_11', THICKNESS= 0.00132, LENGTH= 0.0508, GEOMETRY= 'CYLINDRICAL' /
&SURF ID= 'firebrand_12', MATL_ID= 'ember_12', THICKNESS= 0.00120, LENGTH= 0.0400, GEOMETRY= 'CYLINDRICAL' /
&SURF ID= 'firebrand_13', MATL_ID= 'ember_13', THICKNESS= 0.00187, LENGTH= 0.0416, GEOMETRY= 'CYLINDRICAL' /
&SURF ID= 'firebrand_14', MATL_ID= 'ember_14', THICKNESS= 0.00191, LENGTH= 0.0488, GEOMETRY= 'CYLINDRICAL' /
&SURF ID= 'firebrand_15', MATL_ID= 'ember_15', THICKNESS= 0.00193, LENGTH= 0.0550, GEOMETRY= 'CYLINDRICAL' /


&SURF ID= 'firebrand_16', MATL_ID= 'ember_16', THICKNESS= 0.00205, LENGTH= 0.0540, GEOMETRY= 'CYLINDRICAL' /
&SURF ID= 'firebrand_17', MATL_ID= 'ember_17', THICKNESS= 0.00328, LENGTH= 0.0280, GEOMETRY= 'CYLINDRICAL' /
&SURF ID= 'firebrand_18', MATL_ID= 'ember_18', THICKNESS= 0.00255, LENGTH= 0.0461, GEOMETRY= 'CYLINDRICAL' /
&SURF ID= 'firebrand_19', MATL_ID= 'ember_19', THICKNESS= 0.00305, LENGTH= 0.0438, GEOMETRY= 'CYLINDRICAL' /
&SURF ID= 'firebrand_20', MATL_ID= 'ember_20', THICKNESS= 0.00264, LENGTH= 0.0600, GEOMETRY= 'CYLINDRICAL' /


&SURF ID= 'firebrand_21', MATL_ID= 'ember_21', THICKNESS= 0.00198, LENGTH= 0.0740, GEOMETRY= 'CYLINDRICAL' /
&SURF ID= 'firebrand_22', MATL_ID= 'ember_22', THICKNESS= 0.00223, LENGTH= 0.0800, GEOMETRY= 'CYLINDRICAL' /
&SURF ID= 'firebrand_23', MATL_ID= 'ember_23', THICKNESS= 0.00312, LENGTH= 0.0467, GEOMETRY= 'CYLINDRICAL' /
&SURF ID= 'firebrand_24', MATL_ID= 'ember_24', THICKNESS= 0.00264, LENGTH= 0.0650, GEOMETRY= 'CYLINDRICAL' /
&SURF ID= 'firebrand_25', MATL_ID= 'ember_25', THICKNESS= 0.00370, LENGTH= 0.0550, GEOMETRY= 'CYLINDRICAL' /


&SURF ID= 'firebrand_26', MATL_ID= 'ember_26', THICKNESS= 0.00350, LENGTH= 0.0550, GEOMETRY= 'CYLINDRICAL' /
&SURF ID= 'firebrand_27', MATL_ID= 'ember_27', THICKNESS= 0.00261, LENGTH= 0.1300, GEOMETRY= 'CYLINDRICAL' /
&SURF ID= 'firebrand_28', MATL_ID= 'ember_28', THICKNESS= 0.00250, LENGTH= 0.1400, GEOMETRY= 'CYLINDRICAL' /
&SURF ID= 'firebrand_29', MATL_ID= 'ember_29', THICKNESS= 0.00283, LENGTH= 0.1125, GEOMETRY= 'CYLINDRICAL' /
&SURF ID= 'firebrand_30', MATL_ID= 'ember_30', THICKNESS= 0.00264, LENGTH= 0.1400, GEOMETRY= 'CYLINDRICAL' /
  

/Material properties of vegetation, moisture and char;Modelling of tree fires and fires transitioning, Moinuddin et al 2019, CHAR propertise NIST Rudy Mell
      
&MATL ID = 'foliage', DENSITY = 514., CONDUCTIVITY = 2.0, SPECIFIC_HEAT= 1.2, N_REACTIONS = 1, REFERENCE_TEMPERATURE = 200.,REFERENCE_RATE=0.0005, HEATING_RATE=1.6, NU_MATL = 0.61, NU_SPEC = 0.39, SPEC_ID = 'CELLULOSE', HEAT_OF_REACTION= 418, MATL_ID  = 'CHAR'  /
&MATL ID = 'small_twig', DENSITY = 514., CONDUCTIVITY = 2.0, SPECIFIC_HEAT= 1.2, N_REACTIONS = 1, REFERENCE_TEMPERATURE = 200., REFERENCE_RATE=0.0005, HEATING_RATE=1.6, NU_MATL = 0.61, NU_SPEC = 0.39, SPEC_ID = 'CELLULOSE', HEAT_OF_REACTION= 418, MATL_ID  = 'CHAR' /            	
&MATL ID = 'large_twig', DENSITY = 514., CONDUCTIVITY = 2.0, SPECIFIC_HEAT= 1.2, N_REACTIONS = 1, REFERENCE_TEMPERATURE = 200., REFERENCE_RATE=0.0005, HEATING_RATE=1.6, NU_MATL = 0.61, NU_SPEC = 0.39, SPEC_ID = 'CELLULOSE', HEAT_OF_REACTION= 418, MATL_ID  = 'CHAR' /  
&MATL ID = 'moisture', DENSITY = 1000., CONDUCTIVITY = 2.0, SPECIFIC_HEAT= 4.184, N_REACTIONS = 1, REFERENCE_TEMPERATURE = 100.,REFERENCE_RATE=0.002, HEATING_RATE=1.6, NU_SPEC = 1.0, SPEC_ID = 'WATER VAPOR', HEAT_OF_REACTION= 2500. /
&MATL ID = 'CHAR', DENSITY  = 300., CONDUCTIVITY = 2.0, SPECIFIC_HEAT = 1.2 /


/Material propertise of firebrand classes. Assume firebrand conductivity and specific heat same as in vegetation.


&MATL ID='ember_1', DENSITY= 514., CONDUCTIVITY= 2.0, SPECIFIC_HEAT= 1.2/ 
&MATL ID='ember_2', DENSITY= 514., CONDUCTIVITY= 2.0, SPECIFIC_HEAT= 1.2/
&MATL ID='ember_3', DENSITY= 514., CONDUCTIVITY= 2.0, SPECIFIC_HEAT= 1.2/
&MATL ID='ember_4', DENSITY= 514., CONDUCTIVITY= 2.0, SPECIFIC_HEAT= 1.2/
&MATL ID='ember_5', DENSITY= 514., CONDUCTIVITY= 2.0, SPECIFIC_HEAT= 1.2/ 


&MATL ID='ember_6', DENSITY= 514., CONDUCTIVITY= 2.0, SPECIFIC_HEAT= 1.2/ 
&MATL ID='ember_7', DENSITY= 514., CONDUCTIVITY= 2.0, SPECIFIC_HEAT= 1.2/ 
&MATL ID='ember_8', DENSITY= 514., CONDUCTIVITY= 2.0, SPECIFIC_HEAT= 1.2/ 
&MATL ID='ember_9', DENSITY= 514., CONDUCTIVITY= 2.0, SPECIFIC_HEAT= 1.2/ 
&MATL ID='ember_10', DENSITY=514., CONDUCTIVITY= 2.0, SPECIFIC_HEAT= 1.2/ 


&MATL ID='ember_11', DENSITY= 514., CONDUCTIVITY= 2.0, SPECIFIC_HEAT= 1.2/ 
&MATL ID='ember_12', DENSITY= 514., CONDUCTIVITY= 2.0, SPECIFIC_HEAT= 1.2/ 
&MATL ID='ember_13', DENSITY= 514., CONDUCTIVITY= 2.0, SPECIFIC_HEAT= 1.2/ 
&MATL ID='ember_14', DENSITY= 514., CONDUCTIVITY= 2.0, SPECIFIC_HEAT= 1.2/ 
&MATL ID='ember_15', DENSITY= 514., CONDUCTIVITY= 2.0, SPECIFIC_HEAT= 1.2/ 


&MATL ID='ember_16', DENSITY= 514., CONDUCTIVITY= 2.0, SPECIFIC_HEAT= 1.2/ 
&MATL ID='ember_17', DENSITY= 514., CONDUCTIVITY= 2.0, SPECIFIC_HEAT= 1.2/ 
&MATL ID='ember_18', DENSITY= 514., CONDUCTIVITY= 2.0, SPECIFIC_HEAT= 1.2/ 
&MATL ID='ember_19', DENSITY= 514., CONDUCTIVITY= 2.0, SPECIFIC_HEAT= 1.2/ 
&MATL ID='ember_20', DENSITY= 514., CONDUCTIVITY= 2.0, SPECIFIC_HEAT= 1.2/ 


&MATL ID='ember_21', DENSITY= 514., CONDUCTIVITY= 2.0, SPECIFIC_HEAT= 1.2/ 
&MATL ID='ember_22', DENSITY= 514., CONDUCTIVITY= 2.0, SPECIFIC_HEAT= 1.2/ 
&MATL ID='ember_23', DENSITY= 514., CONDUCTIVITY= 2.0, SPECIFIC_HEAT= 1.2/ 
&MATL ID='ember_24', DENSITY= 514., CONDUCTIVITY= 2.0, SPECIFIC_HEAT= 1.2/ 
&MATL ID='ember_25', DENSITY= 514., CONDUCTIVITY= 2.0, SPECIFIC_HEAT= 1.2/ 


&MATL ID='ember_26', DENSITY= 514., CONDUCTIVITY= 2.0, SPECIFIC_HEAT= 1.2/ 
&MATL ID='ember_27', DENSITY= 514., CONDUCTIVITY= 2.0, SPECIFIC_HEAT= 1.2/ 
&MATL ID='ember_28', DENSITY= 514., CONDUCTIVITY= 2.0, SPECIFIC_HEAT= 1.2/ 
&MATL ID='ember_29', DENSITY= 514., CONDUCTIVITY= 2.0, SPECIFIC_HEAT= 1.2/ 
&MATL ID='ember_30', DENSITY= 514., CONDUCTIVITY= 2.0, SPECIFIC_HEAT= 1.2/ 


/Insert vegetation as a cone shaped tree. N_PARTICLES=(total mass of vegetation species/ mass of a single vegetation particle of that species)

&PART ID='dgl needle', SAMPLING_FACTOR=10, SURF_ID='needle', PROP_ID='tree image_1', QUANTITIES='PARTICLE TEMPERATURE','PARTICLE MASS','PARTICLE DIAMETER', STATIC=.TRUE., RGB= 0,255,60  /
&INIT PART_ID='dgl needle', XYZ=0.0,0.0,0.15, RADIUS=0.75, HEIGHT=2.6, SHAPE='CONE', N_PARTICLES=11580, MASS_PER_VOLUME=4.208 /
&PROP ID='tree image_1', SMOKEVIEW_ID='TUBE', SMOKEVIEW_PARAMETERS='L=0.1','D=0.003', 'RNDXYZ=1'/

&PART ID='dgl twig_1', SAMPLING_FACTOR=5, SURF_ID='twig_1', PROP_ID='tree image_2', QUANTITIES='PARTICLE TEMPERATURE','PARTICLE MASS','PARTICLE DIAMETER', STATIC=.TRUE., RGB= 0,255,60  /
&INIT PART_ID='dgl twig_1', XYZ=0.0,0.0,0.15, RADIUS=0.75, HEIGHT=2.6, SHAPE='CONE', N_PARTICLES=3120, MASS_PER_VOLUME=1.133  /
&PROP ID='tree image_2', SMOKEVIEW_ID='TUBE', SMOKEVIEW_PARAMETERS='L=0.1','D=0.003', 'RNDXYZ=1'/

&PART ID='dgl twig_2', SAMPLING_FACTOR=5, SURF_ID='twig_2', PROP_ID='tree image_3', QUANTITIES='PARTICLE TEMPERATURE','PARTICLE MASS','PARTICLE DIAMETER', STATIC=.TRUE., RGB= 0,255,60  /
&INIT PART_ID='dgl twig_2', XYZ=0.0,0.0,0.15, RADIUS=0.75, HEIGHT=2.6, SHAPE='CONE', N_PARTICLES=440, MASS_PER_VOLUME=1.133  /
&PROP ID='tree image_3', SMOKEVIEW_ID='TUBE', SMOKEVIEW_PARAMETERS='L=0.1','D=0.008', 'RNDXYZ=1'/



/ Ember inserting 86.92g. For each DT_INSERT interval one firebrand is inserted to obtain the total number of firebrands in each class at the end of time t=35s. Default Cylindrical drag law used.

&PART ID='EMBER1', SURF_ID='firebrand_1', SAMPLING_FACTOR=1, DRAG_LAW= 'CYLINDER', AGE=40, RGB=190,100,50, INITIAL_TEMPERATURE=200, QUANTITIES(1:2)='PARTICLE TEMPERATURE','PARTICLE MASS',CTRL_ID='controller 1'/
&INIT ID='1particles1', PART_ID='EMBER1', N_PARTICLES=1, DT_INSERT=18, XYZ=0.0,0.0,0.15, RADIUS=0.85, HEIGHT=2.65, SHAPE='CONE', UVW=0.0,2.1,0.7,CTRL_ID='controller 1'/
&INIT ID='1particles2', PART_ID='EMBER1', N_PARTICLES=1, DT_INSERT=24, XYZ=0.0,0.0,0.15, RADIUS=0.85, HEIGHT=2.65, SHAPE='CONE', UVW=0.0,-2.1,0.7,CTRL_ID='controller 1'/
&INIT ID='1particles3', PART_ID='EMBER1', N_PARTICLES=1, DT_INSERT=21, XYZ=0.0,0.0,0.15, RADIUS=0.85, HEIGHT=2.65, SHAPE='CONE', UVW=2.1,0.0,0.7,CTRL_ID='controller 1'/
&INIT ID='1particles4', PART_ID='EMBER1', N_PARTICLES=1, DT_INSERT=20, XYZ=0.0,0.0,0.15, RADIUS=0.85, HEIGHT=2.65, SHAPE='CONE', UVW=-2.1,0.0,0.7,CTRL_ID='controller 1'/

&PART ID='EMBER2', SURF_ID='firebrand_2', SAMPLING_FACTOR=1, DRAG_LAW= 'CYLINDER', AGE=40, RGB=190,50,160, INITIAL_TEMPERATURE=200, QUANTITIES(1:2)='PARTICLE TEMPERATURE','PARTICLE MASS',CTRL_ID='controller 1'/
&INIT ID='2particles1', PART_ID='EMBER2', N_PARTICLES=1, DT_INSERT=6.0, XYZ=0.0,0.0,0.15, RADIUS=0.85, HEIGHT=2.65, SHAPE='CONE', UVW=0.0,2.1,0.7,CTRL_ID='controller 1'/
&INIT ID='2particles2', PART_ID='EMBER2', N_PARTICLES=1, DT_INSERT=5.9, XYZ=0.0,0.0,0.15, RADIUS=0.85, HEIGHT=2.65, SHAPE='CONE', UVW=0.0,-2.1,0.7,CTRL_ID='controller 1'/
&INIT ID='2particles3', PART_ID='EMBER2', N_PARTICLES=1, DT_INSERT=5.85, XYZ=0.0,0.0,0.15, RADIUS=0.85, HEIGHT=2.65, SHAPE='CONE', UVW=2.1,0.0,0.7,CTRL_ID='controller 1'/
&INIT ID='2particles4', PART_ID='EMBER2', N_PARTICLES=1, DT_INSERT=5.7, XYZ=0.0,0.0,0.15, RADIUS=0.85, HEIGHT=2.65, SHAPE='CONE', UVW=-2.1,0.0,0.7,CTRL_ID='controller 1'/
&INIT ID='2particles5', PART_ID='EMBER2', N_PARTICLES=1, DT_INSERT=5.75, XYZ=0.0,0.0,0.15, RADIUS=0.85, HEIGHT=2.65, SHAPE='CONE', UVW=1.485,1.485,0.7,CTRL_ID='controller 1'/
&INIT ID='2particles6', PART_ID='EMBER2', N_PARTICLES=1, DT_INSERT=5.8, XYZ=0.0,0.0,0.15, RADIUS=0.85, HEIGHT=2.65, SHAPE='CONE', UVW=-1.485,1.485,0.7,CTRL_ID='controller 1'/
&INIT ID='2particles7', PART_ID='EMBER2', N_PARTICLES=1, DT_INSERT=5.95, XYZ=0.0,0.0,0.15, RADIUS=0.85, HEIGHT=2.65, SHAPE='CONE', UVW=-1.485,-1.485,0.7,CTRL_ID='controller 1'/
&INIT ID='2particles8', PART_ID='EMBER2', N_PARTICLES=1, DT_INSERT=6.0, XYZ=0.0,0.0,0.15, RADIUS=0.85, HEIGHT=2.65, SHAPE='CONE', UVW=1.485,-1.485,0.7,CTRL_ID='controller 1'/

&PART ID='EMBER3', SURF_ID='firebrand_3',SAMPLING_FACTOR=1,  DRAG_LAW= 'CYLINDER', AGE=40, RGB=0,255,255, INITIAL_TEMPERATURE=200, QUANTITIES(1:2)='PARTICLE TEMPERATURE','PARTICLE MASS',CTRL_ID='controller 1'/
&INIT ID='3particles1', PART_ID='EMBER3', N_PARTICLES=1, DT_INSERT=6.0, XYZ=0.0,0.0,0.15, RADIUS=0.85, HEIGHT=2.65, SHAPE='CONE', UVW=0.0,2.1,0.7,CTRL_ID='controller 1'/
&INIT ID='3particles2', PART_ID='EMBER3', N_PARTICLES=1, DT_INSERT=5.8, XYZ=0.0,0.0,0.15, RADIUS=0.85, HEIGHT=2.65, SHAPE='CONE', UVW=0.0,-2.1,0.7,CTRL_ID='controller 1'/
&INIT ID='3particles3', PART_ID='EMBER3', N_PARTICLES=1, DT_INSERT=5.95, XYZ=0.0,0.0,0.15, RADIUS=0.85, HEIGHT=2.65, SHAPE='CONE', UVW=2.1,0.0,0.7,CTRL_ID='controller 1'/
&INIT ID='3particles4', PART_ID='EMBER3', N_PARTICLES=1, DT_INSERT=5.85, XYZ=0.0,0.0,0.15, RADIUS=0.85, HEIGHT=2.65, SHAPE='CONE', UVW=-2.1,0.0,0.7,CTRL_ID='controller 1'/

&PART ID='EMBER4', SURF_ID='firebrand_4',SAMPLING_FACTOR=1, DRAG_LAW= 'CYLINDER', AGE=40, RGB=30,30,30, INITIAL_TEMPERATURE=200, QUANTITIES(1:2)='PARTICLE TEMPERATURE','PARTICLE MASS',CTRL_ID='controller 1'/
&INIT ID='4particles1', PART_ID='EMBER4', N_PARTICLES=1, DT_INSERT=6.0, XYZ=0.0,0.0,0.15, RADIUS=0.85, HEIGHT=2.65, SHAPE='CONE', UVW=0.0,2.1,0.7,CTRL_ID='controller 1'/
&INIT ID='4particles2', PART_ID='EMBER4', N_PARTICLES=1, DT_INSERT=5.75, XYZ=0.0,0.0,0.15, RADIUS=0.85, HEIGHT=2.65, SHAPE='CONE', UVW=0.0,-2.1,0.7,CTRL_ID='controller 1'/
&INIT ID='4particles3', PART_ID='EMBER4', N_PARTICLES=1, DT_INSERT=5.9, XYZ=0.0,0.0,0.15, RADIUS=0.85, HEIGHT=2.65, SHAPE='CONE', UVW=2.1,0.0,0.7,CTRL_ID='controller 1'/
&INIT ID='4particles4', PART_ID='EMBER4', N_PARTICLES=1, DT_INSERT=5.85, XYZ=0.0,0.0,0.15, RADIUS=0.85, HEIGHT=2.65, SHAPE='CONE', UVW=-2.1,0.0,0.7,CTRL_ID='controller 1'/
&INIT ID='4particles5', PART_ID='EMBER4', N_PARTICLES=1, DT_INSERT=5.95, XYZ=0.0,0.0,0.15, RADIUS=0.85, HEIGHT=2.65, SHAPE='CONE', UVW=1.485,1.485,0.7,CTRL_ID='controller 1'/
&INIT ID='4particles6', PART_ID='EMBER4', N_PARTICLES=1, DT_INSERT=5.7, XYZ=0.0,0.0,0.15, RADIUS=0.85, HEIGHT=2.65, SHAPE='CONE', UVW=-1.485,1.485,0.7,CTRL_ID='controller 1'/
&INIT ID='4particles7', PART_ID='EMBER4', N_PARTICLES=1, DT_INSERT=5.85, XYZ=0.0,0.0,0.15, RADIUS=0.85, HEIGHT=2.65, SHAPE='CONE', UVW=-1.485,-1.485,0.7,CTRL_ID='controller 1'/
&INIT ID='4particles8', PART_ID='EMBER4', N_PARTICLES=1, DT_INSERT=6.0, XYZ=0.0,0.0,0.15, RADIUS=0.85, HEIGHT=2.65, SHAPE='CONE', UVW=1.485,-1.485,0.7,CTRL_ID='controller 1'/

&PART ID='EMBER5', SURF_ID='firebrand_5',SAMPLING_FACTOR=1,  DRAG_LAW= 'CYLINDER', AGE=40, RGB=30,30,30, INITIAL_TEMPERATURE=200, QUANTITIES(1:2)='PARTICLE TEMPERATURE','PARTICLE MASS',CTRL_ID='controller 1'/
&INIT ID='5particles1', PART_ID='EMBER5', N_PARTICLES=1, DT_INSERT=7.5, XYZ=0.0,0.0,0.15, RADIUS=0.85, HEIGHT=2.65, SHAPE='CONE', UVW=0.0,2.1,0.7,CTRL_ID='controller 1'/
&INIT ID='5particles2', PART_ID='EMBER5', N_PARTICLES=1, DT_INSERT=7.4, XYZ=0.0,0.0,0.15, RADIUS=0.85, HEIGHT=2.65, SHAPE='CONE', UVW=0.0,-2.1,0.7,CTRL_ID='controller 1'/
&INIT ID='5particles3', PART_ID='EMBER5', N_PARTICLES=1, DT_INSERT=7.3, XYZ=0.0,0.0,0.15, RADIUS=0.85, HEIGHT=2.65, SHAPE='CONE', UVW=2.1,0.0,0.7,CTRL_ID='controller 1'/
&INIT ID='5particles4', PART_ID='EMBER5', N_PARTICLES=1, DT_INSERT=7.45, XYZ=0.0,0.0,0.15, RADIUS=0.85, HEIGHT=2.65, SHAPE='CONE', UVW=-2.1,0.0,0.7,CTRL_ID='controller 1'/
&INIT ID='5particles5', PART_ID='EMBER5', N_PARTICLES=1, DT_INSERT=7.5, XYZ=0.0,0.0,0.15, RADIUS=0.85, HEIGHT=2.65, SHAPE='CONE', UVW=1.485,1.485,0.7,CTRL_ID='controller 1'/
&INIT ID='5particles6', PART_ID='EMBER5', N_PARTICLES=1, DT_INSERT=7.35, XYZ=0.0,0.0,0.15, RADIUS=0.85, HEIGHT=2.65, SHAPE='CONE', UVW=-1.485,1.485,0.7,CTRL_ID='controller 1'/
&INIT ID='5particles7', PART_ID='EMBER5', N_PARTICLES=1, DT_INSERT=7.3, XYZ=0.0,0.0,0.15, RADIUS=0.85, HEIGHT=2.65, SHAPE='CONE', UVW=-1.485,-1.485,0.7,CTRL_ID='controller 1'/
&INIT ID='5particles8', PART_ID='EMBER5', N_PARTICLES=1, DT_INSERT=7.5, XYZ=0.0,0.0,0.15, RADIUS=0.85, HEIGHT=2.65, SHAPE='CONE', UVW=1.485,-1.485,0.7,CTRL_ID='controller 1'/

&PART ID='EMBER6', SURF_ID='firebrand_6', SAMPLING_FACTOR=1, DRAG_LAW= 'CYLINDER', AGE=40, RGB=30,30,30, INITIAL_TEMPERATURE=200, QUANTITIES(1:2)='PARTICLE TEMPERATURE','PARTICLE MASS',CTRL_ID='controller 1'/
&INIT ID='6particles1', PART_ID='EMBER6', N_PARTICLES=1, DT_INSERT=10.0, XYZ=0.0,0.0,0.15, RADIUS=0.85, HEIGHT=2.65, SHAPE='CONE', UVW=0.0,2.1,0.7,CTRL_ID='controller 1'/
&INIT ID='6particles2', PART_ID='EMBER6', N_PARTICLES=1, DT_INSERT=9.85, XYZ=0.0,0.0,0.15, RADIUS=0.85, HEIGHT=2.65, SHAPE='CONE', UVW=0.0,-2.1,0.7,CTRL_ID='controller 1'/
&INIT ID='6particles3', PART_ID='EMBER6', N_PARTICLES=1, DT_INSERT=9.9, XYZ=0.0,0.0,0.15, RADIUS=0.85, HEIGHT=2.65, SHAPE='CONE', UVW=2.1,0.0,0.7,CTRL_ID='controller 1'/
&INIT ID='6particles4', PART_ID='EMBER6', N_PARTICLES=1, DT_INSERT=9.7, XYZ=0.0,0.0,0.15, RADIUS=0.85, HEIGHT=2.65, SHAPE='CONE', UVW=-2.1,0.0,0.7,CTRL_ID='controller 1'/
&INIT ID='6particles5', PART_ID='EMBER6', N_PARTICLES=1, DT_INSERT=9.85, XYZ=0.0,0.0,0.15, RADIUS=0.85, HEIGHT=2.65, SHAPE='CONE', UVW=1.485,1.485,0.7,CTRL_ID='controller 1'/
&INIT ID='6particles6', PART_ID='EMBER6', N_PARTICLES=1, DT_INSERT=10.0, XYZ=0.0,0.0,0.15, RADIUS=0.85, HEIGHT=2.65, SHAPE='CONE', UVW=-1.485,1.485,0.7,CTRL_ID='controller 1'/
&INIT ID='6particles7', PART_ID='EMBER6', N_PARTICLES=1, DT_INSERT=9.95, XYZ=0.0,0.0,0.15, RADIUS=0.85, HEIGHT=2.65, SHAPE='CONE', UVW=-1.485,-1.485,0.7,CTRL_ID='controller 1'/
&INIT ID='6particles8', PART_ID='EMBER6', N_PARTICLES=1, DT_INSERT=9.75, XYZ=0.0,0.0,0.15, RADIUS=0.85, HEIGHT=2.65, SHAPE='CONE', UVW=1.485,-1.485,0.7,CTRL_ID='controller 1'/

&PART ID='EMBER7', SURF_ID='firebrand_7', SAMPLING_FACTOR=1, DRAG_LAW= 'CYLINDER', AGE=40, RGB=30,30,30, INITIAL_TEMPERATURE=200, QUANTITIES(1:2)='PARTICLE TEMPERATURE','PARTICLE MASS',CTRL_ID='controller 1'/
&INIT ID='7particles1', PART_ID='EMBER7', N_PARTICLES=1, DT_INSERT=15.0, XYZ=0.0,0.0,0.15, RADIUS=0.85, HEIGHT=2.65, SHAPE='CONE', UVW=0.0,2.1,0.7,CTRL_ID='controller 1'/
&INIT ID='7particles2', PART_ID='EMBER7', N_PARTICLES=1, DT_INSERT=14.8, XYZ=0.0,0.0,0.15, RADIUS=0.85, HEIGHT=2.65, SHAPE='CONE', UVW=0.0,-2.1,0.7,CTRL_ID='controller 1'/
&INIT ID='7particles3', PART_ID='EMBER7', N_PARTICLES=1, DT_INSERT=14.75, XYZ=0.0,0.0,0.15, RADIUS=0.85, HEIGHT=2.65, SHAPE='CONE', UVW=2.1,0.0,0.7,CTRL_ID='controller 1'/
&INIT ID='7particles4', PART_ID='EMBER7', N_PARTICLES=1, DT_INSERT=14.9, XYZ=0.0,0.0,0.15, RADIUS=0.85, HEIGHT=2.65, SHAPE='CONE', UVW=-2.1,0.0,0.7,CTRL_ID='controller 1'/
&INIT ID='7particles5', PART_ID='EMBER7', N_PARTICLES=1, DT_INSERT=14.85, XYZ=0.0,0.0,0.15, RADIUS=0.85, HEIGHT=2.65, SHAPE='CONE', UVW=1.485,1.485,0.7,CTRL_ID='controller 1'/
&INIT ID='7particles6', PART_ID='EMBER7', N_PARTICLES=1, DT_INSERT=14.7, XYZ=0.0,0.0,0.15, RADIUS=0.85, HEIGHT=2.65, SHAPE='CONE', UVW=-1.485,1.485,0.7,CTRL_ID='controller 1'/
&INIT ID='7particles7', PART_ID='EMBER7', N_PARTICLES=1, DT_INSERT=14.95, XYZ=0.0,0.0,0.15, RADIUS=0.85, HEIGHT=2.65, SHAPE='CONE', UVW=-1.485,-1.485,0.7,CTRL_ID='controller 1'/
&INIT ID='7particles8', PART_ID='EMBER7', N_PARTICLES=1, DT_INSERT=15.0, XYZ=0.0,0.0,0.15, RADIUS=0.85, HEIGHT=2.65, SHAPE='CONE', UVW=1.485,-1.485,0.7,CTRL_ID='controller 1'/

&PART ID='EMBER8', SURF_ID='firebrand_8',SAMPLING_FACTOR=1,  DRAG_LAW= 'CYLINDER', AGE=40, RGB=30,30,30, INITIAL_TEMPERATURE=200, QUANTITIES(1:2)='PARTICLE TEMPERATURE','PARTICLE MASS',CTRL_ID='controller 1'/
&INIT ID='8particles1', PART_ID='EMBER8', N_PARTICLES=1, DT_INSERT=15.0, XYZ=0.0,0.0,0.15, RADIUS=0.85, HEIGHT=2.65, SHAPE='CONE', UVW=0.0,2.1,0.7,CTRL_ID='controller 1'/
&INIT ID='8particles2', PART_ID='EMBER8', N_PARTICLES=1, DT_INSERT=14.7, XYZ=0.0,0.0,0.15, RADIUS=0.85, HEIGHT=2.65, SHAPE='CONE', UVW=0.0,-2.1,0.7,CTRL_ID='controller 1'/
&INIT ID='8particles3', PART_ID='EMBER8', N_PARTICLES=1, DT_INSERT=14.9, XYZ=0.0,0.0,0.15, RADIUS=0.85, HEIGHT=2.65, SHAPE='CONE', UVW=2.1,0.0,0.7,CTRL_ID='controller 1'/
&INIT ID='8particles4', PART_ID='EMBER8', N_PARTICLES=1, DT_INSERT=15.0, XYZ=0.0,0.0,0.15, RADIUS=0.85, HEIGHT=2.65, SHAPE='CONE', UVW=-2.1,0.0,0.7,CTRL_ID='controller 1'/

&PART ID='EMBER9', SURF_ID='firebrand_9',SAMPLING_FACTOR=1,  DRAG_LAW= 'CYLINDER', AGE=40, RGB=30,30,30, INITIAL_TEMPERATURE=200, QUANTITIES(1:2)='PARTICLE TEMPERATURE','PARTICLE MASS',CTRL_ID='controller 1'/
&INIT ID='9particles1', PART_ID='EMBER9', N_PARTICLES=1, DT_INSERT=15.0, XYZ=0.0,0.0,0.15, RADIUS=0.85, HEIGHT=2.65, SHAPE='CONE', UVW=0.0,2.1,0.7,CTRL_ID='controller 1'/
&INIT ID='9particles2', PART_ID='EMBER9', N_PARTICLES=1, DT_INSERT=14.7, XYZ=0.0,0.0,0.15, RADIUS=0.85, HEIGHT=2.65, SHAPE='CONE', UVW=0.0,-2.1,0.7,CTRL_ID='controller 1'/
&INIT ID='9particles3', PART_ID='EMBER9', N_PARTICLES=1, DT_INSERT=14.85, XYZ=0.0,0.0,0.15, RADIUS=0.85, HEIGHT=2.65, SHAPE='CONE', UVW=2.1,0.0,0.7,CTRL_ID='controller 1'/
&INIT ID='9particles4', PART_ID='EMBER9', N_PARTICLES=1, DT_INSERT=14.95, XYZ=0.0,0.0,0.15, RADIUS=0.85, HEIGHT=2.65, SHAPE='CONE', UVW=-2.1,0.0,0.7,CTRL_ID='controller 1'/
&INIT ID='9particles5', PART_ID='EMBER9', N_PARTICLES=1, DT_INSERT=14.7, XYZ=0.0,0.0,0.15, RADIUS=0.85, HEIGHT=2.65, SHAPE='CONE', UVW=1.485,1.485,0.7,CTRL_ID='controller 1'/
&INIT ID='9particles6', PART_ID='EMBER9', N_PARTICLES=1, DT_INSERT=15.0, XYZ=0.0,0.0,0.15, RADIUS=0.85, HEIGHT=2.65, SHAPE='CONE', UVW=-1.485,1.485,0.7,CTRL_ID='controller 1'/
&INIT ID='9particles7', PART_ID='EMBER9', N_PARTICLES=1, DT_INSERT=14.8, XYZ=0.0,0.0,0.15, RADIUS=0.85, HEIGHT=2.65, SHAPE='CONE', UVW=-1.485,-1.485,0.7,CTRL_ID='controller 1'/
&INIT ID='9particles8', PART_ID='EMBER9', N_PARTICLES=1, DT_INSERT=15.0, XYZ=0.0,0.0,0.15, RADIUS=0.85, HEIGHT=2.65, SHAPE='CONE', UVW=1.485,-1.485,0.7,CTRL_ID='controller 1'/

&PART ID='EMBER10', SURF_ID='firebrand_10', SAMPLING_FACTOR=1, DRAG_LAW= 'CYLINDER', AGE=40, RGB=30,30,30, INITIAL_TEMPERATURE=200, QUANTITIES(1:2)='PARTICLE TEMPERATURE','PARTICLE MASS',CTRL_ID='controller 1'/
&INIT ID='10particles1', PART_ID='EMBER10', N_PARTICLES=1, DT_INSERT=20.0, XYZ=0.0,0.0,0.15, RADIUS=0.85, HEIGHT=2.65, SHAPE='CONE', UVW=0.0,2.1,0.7,CTRL_ID='controller 1'/
&INIT ID='10particles2', PART_ID='EMBER10', N_PARTICLES=1, DT_INSERT=18.0, XYZ=0.0,0.0,0.15, RADIUS=0.85, HEIGHT=2.65, SHAPE='CONE', UVW=0.0,-2.1,0.7,CTRL_ID='controller 1'/
&INIT ID='10particles3', PART_ID='EMBER10', N_PARTICLES=1, DT_INSERT=25.0, XYZ=0.0,0.0,0.15, RADIUS=0.85, HEIGHT=2.65, SHAPE='CONE', UVW=2.1,0.0,0.7,CTRL_ID='controller 1'/
&INIT ID='10particles4', PART_ID='EMBER10', N_PARTICLES=1, DT_INSERT=26.0, XYZ=0.0,0.0,0.15, RADIUS=0.85, HEIGHT=2.65, SHAPE='CONE', UVW=-2.1,0.0,0.7,CTRL_ID='controller 1'/
&INIT ID='10particles5', PART_ID='EMBER10', N_PARTICLES=1, DT_INSERT=20.0, XYZ=0.0,0.0,0.15, RADIUS=0.85, HEIGHT=2.65, SHAPE='CONE', UVW=1.485,1.485,0.7,CTRL_ID='controller 1'/
&INIT ID='10particles6', PART_ID='EMBER10', N_PARTICLES=1, DT_INSERT=22.0, XYZ=0.0,0.0,0.15, RADIUS=0.85, HEIGHT=2.65, SHAPE='CONE', UVW=-1.485,1.485,0.7,CTRL_ID='controller 1'/
&INIT ID='10particles7', PART_ID='EMBER10', N_PARTICLES=1, DT_INSERT=21.0, XYZ=0.0,0.0,0.15, RADIUS=0.85, HEIGHT=2.65, SHAPE='CONE', UVW=-1.485,-1.485,0.7,CTRL_ID='controller 1'/
&INIT ID='10particles8', PART_ID='EMBER10', N_PARTICLES=1, DT_INSERT=24.0, XYZ=0.0,0.0,0.15, RADIUS=0.85, HEIGHT=2.65, SHAPE='CONE', UVW=1.485,-1.485,0.7,CTRL_ID='controller 1'/

&PART ID='EMBER11', SURF_ID='firebrand_11', SAMPLING_FACTOR=1, DRAG_LAW= 'CYLINDER', AGE=40, RGB=30,30,30, INITIAL_TEMPERATURE=200, QUANTITIES(1:2)='PARTICLE TEMPERATURE','PARTICLE MASS',CTRL_ID='controller 1'/
&INIT ID='11particles1', PART_ID='EMBER11', N_PARTICLES=1, DT_INSERT=20.0, XYZ=0.0,0.0,0.15, RADIUS=0.85, HEIGHT=2.65, SHAPE='CONE', UVW=0.0,2.1,0.7,CTRL_ID='controller 1'/
&INIT ID='11particles2', PART_ID='EMBER11', N_PARTICLES=1, DT_INSERT=25.0, XYZ=0.0,0.0,0.15, RADIUS=0.85, HEIGHT=2.65, SHAPE='CONE', UVW=0.0,-2.1,0.7,CTRL_ID='controller 1'/
&INIT ID='11particles3', PART_ID='EMBER11', N_PARTICLES=1, DT_INSERT=22.0, XYZ=0.0,0.0,0.15, RADIUS=0.85, HEIGHT=2.65, SHAPE='CONE', UVW=2.1,0.0,0.7,CTRL_ID='controller 1'/
&INIT ID='11particles4', PART_ID='EMBER11', N_PARTICLES=1, DT_INSERT=26.0, XYZ=0.0,0.0,0.15, RADIUS=0.85, HEIGHT=2.65, SHAPE='CONE', UVW=-2.1,0.0,0.7,CTRL_ID='controller 1'/
&INIT ID='11particles5', PART_ID='EMBER11', N_PARTICLES=1, DT_INSERT=23.0, XYZ=0.0,0.0,0.15, RADIUS=0.85, HEIGHT=2.65, SHAPE='CONE', UVW=1.485,1.485,0.7,CTRL_ID='controller 1'/
&INIT ID='11particles6', PART_ID='EMBER11', N_PARTICLES=1, DT_INSERT=18.0, XYZ=0.0,0.0,0.15, RADIUS=0.85, HEIGHT=2.65, SHAPE='CONE', UVW=-1.485,1.485,0.7,CTRL_ID='controller 1'/
&INIT ID='11particles7', PART_ID='EMBER11', N_PARTICLES=1, DT_INSERT=20.0, XYZ=0.0,0.0,0.15, RADIUS=0.85, HEIGHT=2.65, SHAPE='CONE', UVW=-1.485,-1.485,0.7,CTRL_ID='controller 1'/
&INIT ID='11particles8', PART_ID='EMBER11', N_PARTICLES=1, DT_INSERT=19.0, XYZ=0.0,0.0,0.15, RADIUS=0.85, HEIGHT=2.65, SHAPE='CONE', UVW=1.485,-1.485,0.7,CTRL_ID='controller 1'/

&PART ID='EMBER12', SURF_ID='firebrand_12',SAMPLING_FACTOR=1,  DRAG_LAW= 'CYLINDER', AGE=40, RGB=30,30,30, INITIAL_TEMPERATURE=200, QUANTITIES(1:2)='PARTICLE TEMPERATURE','PARTICLE MASS',CTRL_ID='controller 1'/
&INIT ID='12particles1', PART_ID='EMBER12', N_PARTICLES=1, DT_INSERT=20.0, XYZ=0.0,0.0,0.15, RADIUS=0.85, HEIGHT=2.65, SHAPE='CONE', UVW=0.0,2.1,0.7,CTRL_ID='controller 1'/
&INIT ID='12particles2', PART_ID='EMBER12', N_PARTICLES=1, DT_INSERT=23.0, XYZ=0.0,0.0,0.15, RADIUS=0.85, HEIGHT=2.65, SHAPE='CONE', UVW=0.0,-2.1,0.7,CTRL_ID='controller 1'/

&PART ID='EMBER13', SURF_ID='firebrand_13',SAMPLING_FACTOR=1, DRAG_LAW= 'CYLINDER', AGE=40, RGB=30,30,30, INITIAL_TEMPERATURE=200, QUANTITIES(1:2)='PARTICLE TEMPERATURE','PARTICLE MASS',CTRL_ID='controller 1'/
&INIT ID='13particles1', PART_ID='EMBER13', N_PARTICLES=1, DT_INSERT=7.50, XYZ=0.0,0.0,0.15, RADIUS=0.85, HEIGHT=2.65, SHAPE='CONE', UVW=0.0,2.1,0.7,CTRL_ID='controller 1'/
&INIT ID='13particles2', PART_ID='EMBER13', N_PARTICLES=1, DT_INSERT=7.30, XYZ=0.0,0.0,0.15, RADIUS=0.85, HEIGHT=2.65, SHAPE='CONE', UVW=0.0,-2.1,0.7,CTRL_ID='controller 1'/
&INIT ID='13particles3', PART_ID='EMBER13', N_PARTICLES=1, DT_INSERT=7.10, XYZ=0.0,0.0,0.15, RADIUS=0.85, HEIGHT=2.65, SHAPE='CONE', UVW=2.1,0.0,0.7,CTRL_ID='controller 1'/
&INIT ID='13particles4', PART_ID='EMBER13', N_PARTICLES=1, DT_INSERT=7.50, XYZ=0.0,0.0,0.15, RADIUS=0.85, HEIGHT=2.65, SHAPE='CONE', UVW=-2.1,0.0,0.7,CTRL_ID='controller 1'/
&INIT ID='13particles5', PART_ID='EMBER13', N_PARTICLES=1, DT_INSERT=7.40, XYZ=0.0,0.0,0.15, RADIUS=0.85, HEIGHT=2.65, SHAPE='CONE', UVW=1.485,1.485,0.7,CTRL_ID='controller 1'/
&INIT ID='13particles6', PART_ID='EMBER13', N_PARTICLES=1, DT_INSERT=7.45, XYZ=0.0,0.0,0.15, RADIUS=0.85, HEIGHT=2.65, SHAPE='CONE', UVW=-1.485,1.485,0.7,CTRL_ID='controller 1'/
&INIT ID='13particles7', PART_ID='EMBER13', N_PARTICLES=1, DT_INSERT=7.50, XYZ=0.0,0.0,0.15, RADIUS=0.85, HEIGHT=2.65, SHAPE='CONE', UVW=-1.485,-1.485,0.7,CTRL_ID='controller 1'/
&INIT ID='13particles8', PART_ID='EMBER13', N_PARTICLES=1, DT_INSERT=7.30, XYZ=0.0,0.0,0.15, RADIUS=0.85, HEIGHT=2.65, SHAPE='CONE', UVW=1.485,-1.485,0.7,CTRL_ID='controller 1'/

&PART ID='EMBER14', SURF_ID='firebrand_14', SAMPLING_FACTOR=1, DRAG_LAW= 'CYLINDER', AGE=40, RGB=30,30,30, INITIAL_TEMPERATURE=200, QUANTITIES(1:2)='PARTICLE TEMPERATURE','PARTICLE MASS',CTRL_ID='controller 1'/
&INIT ID='14particles1', PART_ID='EMBER14', N_PARTICLES=1, DT_INSERT=6.0, XYZ=0.0,0.0,0.15, RADIUS=0.85, HEIGHT=2.65, SHAPE='CONE', UVW=0.0,2.1,0.7,CTRL_ID='controller 1'/